data_PbSO4

_space_group_name_H-M_alt   'P n m a'

_cell_length_a       8.480
_cell_length_b       5.398
_cell_length_c       6.958
_cell_angle_alpha   90.0
_cell_angle_beta    90.0
_cell_angle_gamma   90.0

loop_
 _atom_site_label
 _atom_site_type_symbol
 _atom_site_fract_x
 _atom_site_fract_y
 _atom_site_fract_z
 _atom_site_occupancy
 _atom_site_adp_type
 _atom_site_U_iso_or_equiv
  Pb  Pb   0.188   0.25   0.167   1.0   Uiso  0.01
  S   S    0.063   0.25   0.686   1.0   Uiso  0.01
  O1  O   -0.095   0.25   0.600   1.0   Uiso  0.01
  O2  O    0.181   0.25   0.543   1.0   Uiso  0.01
  O3  O    0.085   0.026  0.806   1.0   Uiso  0.01
